*SPEF "ieee 1481-1999"
*DESIGN "iiitb_4bbc"
*DATE "11:11:11 Fri 11 11, 1111"
*VENDOR "OpenRCX"
*PROGRAM "Parallel Extraction"
*VERSION "1.0"
*DESIGN_FLOW "NAME_SCOPE LOCAL" "PIN_CAP NONE"
*DIVIDER /
*DELIMITER :
*BUS_DELIMITER []
*T_UNIT 1 NS
*C_UNIT 1 PF
*R_UNIT 1 OHM
*L_UNIT 1 HENRY

*NAME_MAP
*1 Count[0]
*2 Count[1]
*3 Count[2]
*4 Count[3]
*5 UpOrDown
*8 clkin
*9 reset
*10 _00_
*11 _01_
*12 _02_
*13 _03_
*14 _04_
*15 _05_
*16 _06_
*17 _07_
*18 _08_
*19 _09_
*20 _10_
*21 _11_
*22 _12_
*23 _13_
*24 _14_
*25 _15_
*26 _16_
*27 _17_
*28 _18_
*29 _19_
*30 clknet_0_clkin
*31 clknet_1_0__leaf_clkin
*32 clknet_1_1__leaf_clkin
*33 net1
*34 net2
*35 net3
*36 net4
*37 net5
*38 net6
*39 FILLER_0_21
*40 FILLER_0_27
*41 FILLER_0_29
*42 FILLER_0_3
*43 FILLER_0_41
*44 FILLER_0_49
*45 FILLER_0_55
*46 FILLER_0_57
*47 FILLER_0_68
*48 FILLER_0_9
*49 FILLER_10_15
*50 FILLER_10_27
*51 FILLER_10_29
*52 FILLER_10_3
*53 FILLER_10_41
*54 FILLER_10_47
*55 FILLER_10_68
*56 FILLER_11_20
*57 FILLER_11_29
*58 FILLER_11_3
*59 FILLER_11_41
*60 FILLER_11_53
*61 FILLER_11_57
*62 FILLER_11_63
*63 FILLER_11_68
*64 FILLER_11_8
*65 FILLER_1_15
*66 FILLER_1_27
*67 FILLER_1_3
*68 FILLER_1_39
*69 FILLER_1_51
*70 FILLER_1_55
*71 FILLER_1_57
*72 FILLER_1_69
*73 FILLER_2_15
*74 FILLER_2_27
*75 FILLER_2_29
*76 FILLER_2_3
*77 FILLER_2_41
*78 FILLER_2_53
*79 FILLER_2_62
*80 FILLER_3_11
*81 FILLER_3_15
*82 FILLER_3_24
*83 FILLER_3_3
*84 FILLER_3_36
*85 FILLER_3_48
*86 FILLER_3_57
*87 FILLER_3_69
*88 FILLER_4_13
*89 FILLER_4_25
*90 FILLER_4_29
*91 FILLER_4_3
*92 FILLER_4_35
*93 FILLER_4_39
*94 FILLER_4_43
*95 FILLER_4_55
*96 FILLER_4_67
*97 FILLER_5_24
*98 FILLER_5_3
*99 FILLER_5_48
*100 FILLER_5_57
*101 FILLER_5_69
*102 FILLER_5_9
*103 FILLER_6_26
*104 FILLER_6_29
*105 FILLER_6_3
*106 FILLER_6_36
*107 FILLER_6_44
*108 FILLER_6_65
*109 FILLER_6_69
*110 FILLER_7_10
*111 FILLER_7_21
*112 FILLER_7_3
*113 FILLER_7_33
*114 FILLER_7_54
*115 FILLER_7_57
*116 FILLER_7_69
*117 FILLER_8_15
*118 FILLER_8_23
*119 FILLER_8_27
*120 FILLER_8_29
*121 FILLER_8_3
*122 FILLER_8_34
*123 FILLER_8_40
*124 FILLER_8_44
*125 FILLER_8_68
*126 FILLER_9_15
*127 FILLER_9_20
*128 FILLER_9_3
*129 FILLER_9_32
*130 FILLER_9_54
*131 FILLER_9_57
*132 FILLER_9_69
*133 PHY_0
*134 PHY_1
*135 PHY_10
*136 PHY_11
*137 PHY_12
*138 PHY_13
*139 PHY_14
*140 PHY_15
*141 PHY_16
*142 PHY_17
*143 PHY_18
*144 PHY_19
*145 PHY_2
*146 PHY_20
*147 PHY_21
*148 PHY_22
*149 PHY_23
*150 PHY_3
*151 PHY_4
*152 PHY_5
*153 PHY_6
*154 PHY_7
*155 PHY_8
*156 PHY_9
*157 TAP_24
*158 TAP_25
*159 TAP_26
*160 TAP_27
*161 TAP_28
*162 TAP_29
*163 TAP_30
*164 TAP_31
*165 TAP_32
*166 TAP_33
*167 TAP_34
*168 TAP_35
*169 TAP_36
*170 TAP_37
*171 _20_
*172 _22_
*173 _23_
*174 _24_
*175 _25_
*176 _26_
*177 _27_
*178 _28_
*179 _29_
*180 _30_
*181 _31_
*182 _32_
*183 _33_
*184 _34_
*185 _35_
*186 _40_
*187 _41_
*188 _42_
*189 _43_
*190 clkbuf_0_clkin
*191 clkbuf_1_0__f_clkin
*192 clkbuf_1_1__f_clkin
*193 input1
*194 input2
*195 output3
*196 output4
*197 output5
*198 output6

*PORTS
Count[0] O
Count[1] O
Count[2] O
Count[3] O
UpOrDown I
clkin I
reset I

*D_NET *1 0.000493319
*CONN
*P Count[0] O
*I *195:X O *D sky130_fd_sc_hd__buf_2
*CAP
1 Count[0] 0.000246659
2 *195:X 0.000246659
*RES
1 *195:X Count[0] 19.0342 
*END

*D_NET *2 0.000697817
*CONN
*P Count[1] O
*I *196:X O *D sky130_fd_sc_hd__buf_2
*CAP
1 Count[1] 0.000348909
2 *196:X 0.000348909
3 Count[1] *196:A 0
*RES
1 *196:X Count[1] 21.6393 
*END

*D_NET *3 0.000548194
*CONN
*P Count[2] O
*I *197:X O *D sky130_fd_sc_hd__buf_2
*CAP
1 Count[2] 0.000274097
2 *197:X 0.000274097
3 Count[2] *181:B 0
4 Count[2] *183:S 0
*RES
1 *197:X Count[2] 18.9462 
*END

*D_NET *4 0.00132764
*CONN
*P Count[3] O
*I *198:X O *D sky130_fd_sc_hd__buf_2
*CAP
1 Count[3] 0.000663818
2 *198:X 0.000663818
*RES
1 *198:X Count[3] 28.2107 
*END

*D_NET *5 0.00144873
*CONN
*P UpOrDown I
*I *193:A I *D sky130_fd_sc_hd__clkbuf_1
*CAP
1 UpOrDown 0.000724365
2 *193:A 0.000724365
*RES
1 UpOrDown *193:A 29.6214 
*END

*D_NET *8 0.00142567
*CONN
*P clkin I
*I *190:A I *D sky130_fd_sc_hd__clkbuf_16
*CAP
1 clkin 0.000712835
2 *190:A 0.000712835
*RES
1 clkin *190:A 30.0321 
*END

*D_NET *9 0.000531314
*CONN
*P reset I
*I *194:A I *D sky130_fd_sc_hd__clkbuf_1
*CAP
1 reset 0.000265657
2 *194:A 0.000265657
*RES
1 reset *194:A 21.9047 
*END

*D_NET *11 0.000287315
*CONN
*I *187:D I *D sky130_fd_sc_hd__dfrtp_1
*I *177:X O *D sky130_fd_sc_hd__clkbuf_1
*CAP
1 *187:D 0.000143657
2 *177:X 0.000143657
*RES
1 *177:X *187:D 30.7071 
*END

*D_NET *12 0.00136194
*CONN
*I *188:D I *D sky130_fd_sc_hd__dfrtp_1
*I *181:Y O *D sky130_fd_sc_hd__xnor2_1
*CAP
1 *188:D 0.000680971
2 *181:Y 0.000680971
3 *188:D *175:B 0
4 *188:D *187:CLK 0
5 *188:D *195:A 0
6 *188:D *35:11 0
7 *188:D *36:10 0
*RES
1 *181:Y *188:D 41.9214 
*END

*D_NET *13 0.00281305
*CONN
*I *189:D I *D sky130_fd_sc_hd__dfrtp_1
*I *184:Y O *D sky130_fd_sc_hd__xnor2_1
*CAP
1 *189:D 0.000581449
2 *184:Y 0.000825074
3 *13:13 0.00140652
4 *13:13 *184:B 0
5 *13:13 *38:15 0
6 *13:13 *38:20 0
*RES
1 *184:Y *13:13 40.1036 
2 *13:13 *189:D 26.9071 
*END

*D_NET *18 0.00224028
*CONN
*I *173:A I *D sky130_fd_sc_hd__or2_1
*I *172:A I *D sky130_fd_sc_hd__nand2_1
*I *178:A I *D sky130_fd_sc_hd__nand3_1
*I *179:A1 I *D sky130_fd_sc_hd__a21o_1
*I *182:A I *D sky130_fd_sc_hd__or3_1
*I *171:X O *D sky130_fd_sc_hd__clkbuf_1
*CAP
1 *173:A 0.00018396
2 *172:A 0
3 *178:A 0
4 *179:A1 0
5 *182:A 0.000111322
6 *171:X 0.000216453
7 *18:25 0.000295281
8 *18:22 0.000390515
9 *18:11 0.000424446
10 *18:6 0.000618302
11 *173:A *191:A 0
12 *173:A *192:A 0
13 *173:A *36:18 0
14 *182:A *19:8 0
15 *182:A *37:19 0
16 *18:11 *172:B 0
17 *18:22 *172:B 0
18 *18:22 *36:39 0
19 *18:22 *37:9 0
20 *18:25 *178:B 0
21 *18:25 *179:A2 0
22 *18:25 *19:8 0
23 *18:25 *37:15 0
24 *18:25 *37:19 0
*RES
1 *171:X *18:6 18.7821 
2 *18:6 *18:11 9.41071 
3 *18:11 *18:22 13.5 
4 *18:22 *18:25 3.83929 
5 *18:25 *182:A 20.7821 
6 *18:25 *179:A1 9.3 
7 *18:22 *178:A 9.3 
8 *18:11 *172:A 9.3 
9 *18:6 *173:A 17.6393 
*END

*D_NET *19 0.00260629
*CONN
*I *174:A1 I *D sky130_fd_sc_hd__a21oi_1
*I *175:B I *D sky130_fd_sc_hd__and3_1
*I *172:Y O *D sky130_fd_sc_hd__nand2_1
*CAP
1 *174:A1 0.000337638
2 *175:B 0.000281501
3 *172:Y 0.000684004
4 *19:8 0.00130314
5 *175:B *175:C 0
6 *175:B *181:B 0
7 *19:8 *172:B 0
8 *19:8 *179:A2 0
9 *19:8 *24:7 0
10 *19:8 *36:39 0
11 *19:8 *37:19 0
12 *182:A *19:8 0
13 *188:D *175:B 0
14 *18:25 *19:8 0
*RES
1 *172:Y *19:8 28.3357 
2 *19:8 *175:B 19.675 
3 *19:8 *174:A1 21.3536 
*END

*D_NET *20 0.00155905
*CONN
*I *174:A2 I *D sky130_fd_sc_hd__a21oi_1
*I *175:C I *D sky130_fd_sc_hd__and3_1
*I *173:X O *D sky130_fd_sc_hd__or2_1
*CAP
1 *174:A2 0.000203042
2 *175:C 0.000235297
3 *173:X 0.000341186
4 *20:8 0.000779525
5 *175:C *181:A 0
6 *20:8 *191:A 0
7 *20:8 *31:7 0
8 *175:B *175:C 0
*RES
1 *173:X *20:8 21.1036 
2 *20:8 *175:C 18.7107 
3 *20:8 *174:A2 18.4786 
*END

*D_NET *21 0.000792692
*CONN
*I *176:A I *D sky130_fd_sc_hd__or2_1
*I *181:A I *D sky130_fd_sc_hd__xnor2_1
*I *174:Y O *D sky130_fd_sc_hd__a21oi_1
*CAP
1 *176:A 8.17123e-05
2 *181:A 0.000230396
3 *174:Y 8.42372e-05
4 *21:8 0.000396346
5 *181:A *176:B 0
6 *181:A *181:B 0
7 *175:C *181:A 0
*RES
1 *174:Y *21:8 20.2464 
2 *21:8 *181:A 23.2643 
3 *21:8 *176:A 11.0679 
*END

*D_NET *22 0.000483991
*CONN
*I *176:B I *D sky130_fd_sc_hd__or2_1
*I *175:X O *D sky130_fd_sc_hd__and3_1
*CAP
1 *176:B 0.000241995
2 *175:X 0.000241995
3 *181:A *176:B 0
*RES
1 *175:X *176:B 32.7607 
*END

*D_NET *23 0.000366208
*CONN
*I *177:A I *D sky130_fd_sc_hd__clkbuf_1
*I *176:X O *D sky130_fd_sc_hd__or2_1
*CAP
1 *177:A 0.000183104
2 *176:X 0.000183104
*RES
1 *176:X *177:A 22.4214 
*END

*D_NET *24 0.00111015
*CONN
*I *183:A1 I *D sky130_fd_sc_hd__mux2_1
*I *180:A I *D sky130_fd_sc_hd__nand2_1
*I *178:Y O *D sky130_fd_sc_hd__nand3_1
*CAP
1 *183:A1 6.95487e-05
2 *180:A 0.000263065
3 *178:Y 0.000222463
4 *24:7 0.000555076
5 *180:A *180:B 0
6 *24:7 *197:A 0
7 *19:8 *24:7 0
*RES
1 *178:Y *24:7 18.4429 
2 *24:7 *180:A 19.55 
3 *24:7 *183:A1 15.4429 
*END

*D_NET *25 0.000511806
*CONN
*I *180:B I *D sky130_fd_sc_hd__nand2_1
*I *179:X O *D sky130_fd_sc_hd__a21o_1
*CAP
1 *180:B 0.000255903
2 *179:X 0.000255903
3 *180:A *180:B 0
*RES
1 *179:X *180:B 33.1 
*END

*D_NET *26 0.00100296
*CONN
*I *181:B I *D sky130_fd_sc_hd__xnor2_1
*I *180:Y O *D sky130_fd_sc_hd__nand2_1
*CAP
1 *181:B 0.000501482
2 *180:Y 0.000501482
3 *181:B *183:S 0
4 *181:B *38:20 0
5 Count[2] *181:B 0
6 *175:B *181:B 0
7 *181:A *181:B 0
*RES
1 *180:Y *181:B 38.8143 
*END

*D_NET *27 0.000385005
*CONN
*I *183:A0 I *D sky130_fd_sc_hd__mux2_1
*I *182:X O *D sky130_fd_sc_hd__or3_1
*CAP
1 *183:A0 0.000192503
2 *182:X 0.000192503
*RES
1 *182:X *183:A0 31.975 
*END

*D_NET *28 0.000392617
*CONN
*I *184:B I *D sky130_fd_sc_hd__xnor2_1
*I *183:X O *D sky130_fd_sc_hd__mux2_1
*CAP
1 *184:B 0.000196308
2 *183:X 0.000196308
3 *184:B *184:A 0
4 *13:13 *184:B 0
*RES
1 *183:X *184:B 31.8321 
*END

*D_NET *30 0.00140377
*CONN
*I *192:A I *D sky130_fd_sc_hd__clkbuf_16
*I *191:A I *D sky130_fd_sc_hd__clkbuf_16
*I *190:X O *D sky130_fd_sc_hd__clkbuf_16
*CAP
1 *192:A 0.000121071
2 *191:A 0.000281501
3 *190:X 0.000299313
4 *30:8 0.000701885
5 *191:A *31:7 0
6 *191:A *36:18 0
7 *30:8 *187:CLK 0
8 *173:A *191:A 0
9 *173:A *192:A 0
10 *20:8 *191:A 0
*RES
1 *190:X *30:8 25.1036 
2 *30:8 *191:A 15.175 
3 *30:8 *192:A 11.8893 
*END

*D_NET *31 0.00136523
*CONN
*I *187:CLK I *D sky130_fd_sc_hd__dfrtp_1
*I *186:CLK I *D sky130_fd_sc_hd__dfrtp_1
*I *191:X O *D sky130_fd_sc_hd__clkbuf_16
*CAP
1 *187:CLK 0.000269793
2 *186:CLK 7.22819e-05
3 *191:X 0.000340539
4 *31:7 0.000682614
5 *187:CLK *36:10 0
6 *188:D *187:CLK 0
7 *191:A *31:7 0
8 *20:8 *31:7 0
9 *30:8 *187:CLK 0
*RES
1 *191:X *31:7 20.9071 
2 *31:7 *186:CLK 15.4429 
3 *31:7 *187:CLK 19.8 
*END

*D_NET *32 0.00123617
*CONN
*I *189:CLK I *D sky130_fd_sc_hd__dfrtp_1
*I *188:CLK I *D sky130_fd_sc_hd__dfrtp_1
*I *192:X O *D sky130_fd_sc_hd__clkbuf_16
*CAP
1 *189:CLK 0.000216492
2 *188:CLK 0
3 *192:X 0.000401595
4 *32:8 0.000618086
*RES
1 *192:X *32:8 22.5143 
2 *32:8 *188:CLK 13.8 
3 *32:8 *189:CLK 18.7821 
*END

*D_NET *33 0.00245608
*CONN
*I *174:B1 I *D sky130_fd_sc_hd__a21oi_1
*I *175:A I *D sky130_fd_sc_hd__and3_1
*I *183:S I *D sky130_fd_sc_hd__mux2_1
*I *193:X O *D sky130_fd_sc_hd__clkbuf_1
*CAP
1 *174:B1 0.000222463
2 *175:A 0
3 *183:S 0.000575185
4 *193:X 0.000224519
5 *33:10 0.000781059
6 *33:8 0.000652856
7 *183:S *197:A 0
8 Count[2] *183:S 0
9 *181:B *183:S 0
*RES
1 *193:X *33:8 18.8179 
2 *33:8 *33:10 4.67857 
3 *33:10 *183:S 26.2107 
4 *33:10 *175:A 13.8 
5 *33:8 *174:B1 18.4429 
*END

*D_NET *34 0.000618452
*CONN
*I *185:A I *D sky130_fd_sc_hd__buf_1
*I *194:X O *D sky130_fd_sc_hd__clkbuf_1
*CAP
1 *185:A 0.000309226
2 *194:X 0.000309226
*RES
1 *194:X *185:A 34.3857 
*END

*D_NET *35 0.00253254
*CONN
*I *195:A I *D sky130_fd_sc_hd__buf_2
*I *171:A I *D sky130_fd_sc_hd__clkbuf_1
*I *186:Q O *D sky130_fd_sc_hd__dfrtp_1
*CAP
1 *195:A 0.000849017
2 *171:A 0
3 *186:Q 0.000417253
4 *35:11 0.00126627
5 *188:D *195:A 0
6 *188:D *35:11 0
*RES
1 *186:Q *35:11 27.5143 
2 *35:11 *171:A 9.3 
3 *35:11 *195:A 36.6571 
*END

*D_NET *36 0.00420681
*CONN
*I *172:B I *D sky130_fd_sc_hd__nand2_1
*I *178:B I *D sky130_fd_sc_hd__nand3_1
*I *179:A2 I *D sky130_fd_sc_hd__a21o_1
*I *182:B I *D sky130_fd_sc_hd__or3_1
*I *196:A I *D sky130_fd_sc_hd__buf_2
*I *173:B I *D sky130_fd_sc_hd__or2_1
*I *187:Q O *D sky130_fd_sc_hd__dfrtp_1
*CAP
1 *172:B 0.000105242
2 *178:B 2.0535e-05
3 *179:A2 0.00018396
4 *182:B 0.00030118
5 *196:A 0.000502293
6 *173:B 0
7 *187:Q 0.000457846
8 *36:39 0.000325566
9 *36:38 0.000226313
10 *36:20 0.000955903
11 *36:18 0.000411277
12 *36:10 0.000716694
13 *172:B *37:9 0
14 *179:A2 *37:15 0
15 *182:B *182:C 0
16 Count[1] *196:A 0
17 *173:A *36:18 0
18 *187:CLK *36:10 0
19 *188:D *36:10 0
20 *191:A *36:18 0
21 *18:11 *172:B 0
22 *18:22 *172:B 0
23 *18:22 *36:39 0
24 *18:25 *178:B 0
25 *18:25 *179:A2 0
26 *19:8 *172:B 0
27 *19:8 *179:A2 0
28 *19:8 *36:39 0
*RES
1 *187:Q *36:10 28.0679 
2 *36:10 *173:B 9.3 
3 *36:10 *36:18 10.2321 
4 *36:18 *36:20 3.46429 
5 *36:20 *196:A 24.8357 
6 *36:20 *182:B 20.0857 
7 *36:18 *36:38 4.5 
8 *36:38 *36:39 2.58929 
9 *36:39 *179:A2 13.1393 
10 *36:39 *178:B 9.72857 
11 *36:38 *172:B 11.4964 
*END

*D_NET *37 0.0037823
*CONN
*I *178:C I *D sky130_fd_sc_hd__nand3_1
*I *182:C I *D sky130_fd_sc_hd__or3_1
*I *179:B1 I *D sky130_fd_sc_hd__a21o_1
*I *197:A I *D sky130_fd_sc_hd__buf_2
*I *188:Q O *D sky130_fd_sc_hd__dfrtp_1
*CAP
1 *178:C 0
2 *182:C 9.79704e-05
3 *179:B1 0
4 *197:A 0.000399204
5 *188:Q 0.00107205
6 *37:19 0.000497815
7 *37:15 0.0004199
8 *37:9 0.00129537
9 *197:A *38:20 0
10 *172:B *37:9 0
11 *179:A2 *37:15 0
12 *182:A *37:19 0
13 *182:B *182:C 0
14 *183:S *197:A 0
15 *18:22 *37:9 0
16 *18:25 *37:15 0
17 *18:25 *37:19 0
18 *19:8 *37:19 0
19 *24:7 *197:A 0
*RES
1 *188:Q *37:9 41.5143 
2 *37:9 *37:15 4.78571 
3 *37:15 *37:19 2.08929 
4 *37:19 *197:A 26.8714 
5 *37:19 *179:B1 9.3 
6 *37:15 *182:C 20.4786 
7 *37:9 *178:C 9.3 
*END

*D_NET *38 0.0046269
*CONN
*I *184:A I *D sky130_fd_sc_hd__xnor2_1
*I *198:A I *D sky130_fd_sc_hd__buf_2
*I *189:Q O *D sky130_fd_sc_hd__dfrtp_1
*CAP
1 *184:A 6.50276e-05
2 *198:A 0.000498011
3 *189:Q 0.00143042
4 *38:20 0.000883028
5 *38:15 0.00175041
6 *181:B *38:20 0
7 *184:B *184:A 0
8 *197:A *38:20 0
9 *13:13 *38:15 0
10 *13:13 *38:20 0
*RES
1 *189:Q *38:15 49.2464 
2 *38:15 *38:20 11.3929 
3 *38:20 *198:A 24.9964 
4 *38:20 *184:A 15.1571 
*END
